@<TRIPOS>MOLECULE
TST
   23    22     1     0     0
SMALL
resp


@<TRIPOS>ATOM
      1 C1          -4.5510    -0.1870     0.0000 c3         1 TST      -0.211596
      2 C2          -3.2150     0.5340     0.0000 c3         1 TST       0.083777
      3 C3          -2.0570    -0.4640    -0.0000 c3         1 TST      -0.000936
      4 C4          -0.7180     0.2630     0.0000 c3         1 TST       0.166279
      5 C5           0.4740    -0.6970    -0.0000 c3         1 TST      -0.520656
      6 C6           1.7700     0.0880    -0.0000 c          1 TST       0.992789
      7 O1           1.8430     1.3110     0.0000 o          1 TST      -0.633595
      8 O2           2.8490    -0.7450     0.0000 os         1 TST      -0.506085
      9 C7           4.1020    -0.0500    -0.0000 c3         1 TST       0.077420
     10 H1          -5.3740     0.5340     0.0000 hc         1 TST       0.046633
     11 H2          -4.6490    -0.8200     0.8870 hc         1 TST       0.046633
     12 H3          -4.6490    -0.8200    -0.8870 hc         1 TST       0.046633
     13 H4          -3.1520     1.1830     0.8820 hc         1 TST      -0.005506
     14 H5          -3.1520     1.1830    -0.8820 hc         1 TST      -0.005506
     15 H6          -2.1290    -1.1100    -0.8830 hc         1 TST       0.008182
     16 H7          -2.1290    -1.1100     0.8830 hc         1 TST       0.008182
     17 H8          -0.6600     0.9160     0.8800 hc         1 TST      -0.020651
     18 H9          -0.6600     0.9160    -0.8800 hc         1 TST      -0.020651
     19 H10          0.4380    -1.3330    -0.8920 hc         1 TST       0.134404
     20 H11          0.4380    -1.3330     0.8920 hc         1 TST       0.134404
     21 H12          4.9100    -0.7870    -0.0000 h1         1 TST       0.059948
     22 H13          4.2020     0.5670     0.9000 h1         1 TST       0.059948
     23 H14          4.2020     0.5670    -0.9000 h1         1 TST       0.059948
@<TRIPOS>BOND
     1     1     2 1   
     2     1    10 1   
     3     1    11 1   
     4     1    12 1   
     5     2     3 1   
     6     2    13 1   
     7     2    14 1   
     8     3     4 1   
     9     3    15 1   
    10     3    16 1   
    11     4     5 1   
    12     4    17 1   
    13     4    18 1   
    14     5     6 1   
    15     5    19 1   
    16     5    20 1   
    17     6     7 2   
    18     6     8 1   
    19     8     9 1   
    20     9    21 1   
    21     9    22 1   
    22     9    23 1   
@<TRIPOS>SUBSTRUCTURE
     1 TST         1 TEMP              0 ****  ****    0 ROOT
